File C:\Users\dell\OneDrive\Desktop\summer project\FINAL PROBLEM\PART 3\BRIDGE.$2k was saved on m/d/yy at h:mm:ss
 
TABLE:  "ACTIVE DEGREES OF FREEDOM"
   UX=Yes   UY=Yes   UZ=Yes   RX=Yes   RY=Yes   RZ=Yes
 
TABLE:  "ANALYSIS OPTIONS"
   Solver=Advanced   SolverProc=Auto   Force32Bit=No   StiffCase=None   GeomMod=None   HingeOpt="In Elements"
 
TABLE:  "AREA AUTO MESH ASSIGNMENTS"
   Area=1   MeshType="Number of Elements"   MeshGroup=ALL   Number1=6   Number2=6   LocalEdge=No   LocalFace=No   SuppEdge=No   SuppFace=No   SubMesh=No
   Area=2   MeshType="Number of Elements"   MeshGroup=ALL   Number1=6   Number2=6   LocalEdge=No   LocalFace=No   SuppEdge=No   SuppFace=No   SubMesh=No
   Area=3   MeshType="Number of Elements"   MeshGroup=ALL   Number1=6   Number2=6   LocalEdge=No   LocalFace=No   SuppEdge=No   SuppFace=No   SubMesh=No
   Area=4   MeshType="Number of Elements"   MeshGroup=ALL   Number1=6   Number2=6   LocalEdge=No   LocalFace=No   SuppEdge=No   SuppFace=No   SubMesh=No
   Area=5   MeshType="Number of Elements"   MeshGroup=ALL   Number1=6   Number2=6   LocalEdge=No   LocalFace=No   SuppEdge=No   SuppFace=No   SubMesh=No
   Area=6   MeshType="Number of Elements"   MeshGroup=ALL   Number1=6   Number2=6   LocalEdge=No   LocalFace=No   SuppEdge=No   SuppFace=No   SubMesh=No
   Area=7   MeshType="Number of Elements"   MeshGroup=ALL   Number1=6   Number2=6   LocalEdge=No   LocalFace=No   SuppEdge=No   SuppFace=No   SubMesh=No
   Area=8   MeshType="Number of Elements"   MeshGroup=ALL   Number1=6   Number2=6   LocalEdge=No   LocalFace=No   SuppEdge=No   SuppFace=No   SubMesh=No
 
TABLE:  "AREA SECTION ASSIGNMENTS"
   Area=1   Section=SLAB   MatProp=Default
   Area=2   Section=SLAB   MatProp=Default
   Area=3   Section=SLAB   MatProp=Default
   Area=4   Section=SLAB   MatProp=Default
   Area=5   Section=SLAB   MatProp=Default
   Area=6   Section=SLAB   MatProp=Default
   Area=7   Section=SLAB   MatProp=Default
   Area=8   Section=SLAB   MatProp=Default
 
TABLE:  "AREA SECTION PROPERTIES"
   Section=SLAB   Material=4000Psi   MatAngle=0   AreaType=Shell   Type=Shell-Thin   DrillDOF=Yes   Thickness=0.24999696   BendThick=0.24999696   Color=Red   F11Mod=1   F22Mod=1   F12Mod=1   M11Mod=1   M22Mod=1   M12Mod=1   V13Mod=1 _
        V23Mod=1   MMod=1   WMod=1   Notes="Added 01-01-2019 01:45:48"
 
TABLE:  "AREA SECTION PROPERTY DESIGN PARAMETERS"
   Section=SLAB   RebarMat=None   RebarOpt=Default
 
TABLE:  "AREA SECTION PROPERTY - TIME DEPENDENT"
   Section=SLAB   TypeSize=Auto   AutoSFSize=1
 
TABLE:  "AUTO WAVE 3 - WAVE CHARACTERISTICS - GENERAL"
   WaveChar=Default   WaveType="From Theory"   KinFactor=1   SWaterDepth=45   WaveHeight=18   WavePeriod=12   WaveTheory=Linear
 
TABLE:  "CASE - MODAL 1 - GENERAL"
   Case=MODAL   ModeType=Eigen   MaxNumModes=12   MinNumModes=1   EigenShift=0   EigenCutoff=0   EigenTol=1E-09   AutoShift=Yes
 
TABLE:  "CASE - STATIC 1 - LOAD ASSIGNMENTS"
   Case=DEAD   LoadType="Load pattern"   LoadName=DEAD   LoadSF=1
   Case=WIND   LoadType="Load pattern"   LoadName=WIND   LoadSF=1
   Case=STRUCTURE   LoadType="Load pattern"   LoadName=STRUCTURE   LoadSF=1
 
TABLE:  "CONNECTIVITY - AREA"
   Area=1   Joint1=15   Joint2=32   Joint3=31   Joint4=17   GUID=e6c34b68-2943-461a-b772-6a0bb833231e
   Area=2   Joint1=32   Joint2=30   Joint3=29   Joint4=31   GUID=36c42324-7122-49c9-8bbc-ab5f579cdc0c
   Area=3   Joint1=30   Joint2=28   Joint3=27   Joint4=29   GUID=a22f7d9e-a460-4423-b2ca-b85f15a42de3
   Area=4   Joint1=28   Joint2=26   Joint3=25   Joint4=27   GUID=162f05fd-72dd-4717-8030-aac353b34c14
   Area=5   Joint1=26   Joint2=24   Joint3=23   Joint4=25   GUID=8c9cfbe2-6357-4beb-a7a0-336badddd279
   Area=6   Joint1=24   Joint2=22   Joint3=21   Joint4=23   GUID=7d980eda-0e04-4942-abe4-cbd9f52beb02
   Area=7   Joint1=22   Joint2=20   Joint3=19   Joint4=21   GUID=6551f075-0356-4e50-9219-6688f2ba4c0e
   Area=8   Joint1=20   Joint2=16   Joint3=18   Joint4=19   GUID=a000e993-6c16-4404-9dd6-10f92d35ddc0
 
TABLE:  "CONNECTIVITY - FRAME"
   Frame=10   JointI=15   JointJ=16   IsCurved=No   GUID=440a1058-99d9-4e1a-a5b4-6ea2143f79d8
   Frame=11   JointI=17   JointJ=18   IsCurved=No   GUID=643809b6-0d89-4fca-a2fa-84e64541d1c9
   Frame=12   JointI=18   JointJ=16   IsCurved=No   GUID=8058e990-c2d4-4ed5-9158-fa97139687d9
   Frame=13   JointI=17   JointJ=15   IsCurved=No   GUID=7c01fd44-3840-436f-9879-b2f4d5e946e1
   Frame=14   JointI=19   JointJ=20   IsCurved=No   GUID=1b966f4c-d2f6-46da-8250-6301e8de0a5b
   Frame=15   JointI=21   JointJ=22   IsCurved=No   GUID=2c0cc9de-17e0-468c-a061-6f49c197b891
   Frame=16   JointI=23   JointJ=24   IsCurved=No   GUID=c7ebf5dd-e6e9-4917-ab5c-b9eedeae7057
   Frame=17   JointI=25   JointJ=26   IsCurved=No   GUID=e852bd6b-8def-48cc-8a9d-2a0da9be7c04
   Frame=18   JointI=27   JointJ=28   IsCurved=No   GUID=fbd9e208-5dfb-4d1b-84ad-bbf2892837f9
   Frame=19   JointI=29   JointJ=30   IsCurved=No   GUID=a91d5ddc-3f2e-49b0-8675-7d9e571db171
   Frame=20   JointI=31   JointJ=32   IsCurved=No   GUID=b64a2956-c57e-4ed7-84f2-4089fa21c057
   Frame=21   JointI=15   JointJ=33   IsCurved=No   GUID=53df4957-87bc-4360-8aa1-a7020dab559b
   Frame=22   JointI=33   JointJ=34   IsCurved=No   GUID=fc61f5c7-b43e-4d75-8058-45ba6716b910
   Frame=23   JointI=34   JointJ=16   IsCurved=No   GUID=e7c00447-fb55-48f2-9d65-27a218f392f8
   Frame=24   JointI=33   JointJ=32   IsCurved=No   GUID=aa76d732-9e37-45dc-b2d4-90734065a216
   Frame=25   JointI=34   JointJ=20   IsCurved=No   GUID=994afc4e-9630-4a7a-9eb7-d398ed75a69d
   Frame=30   JointI=33   JointJ=28   IsCurved=No   GUID=d42491f0-81e1-43bc-b6d5-9d05109c391e
   Frame=31   JointI=28   JointJ=38   IsCurved=No   GUID=44680c7e-d415-4e12-8d44-ed5c38ee3fa7
   Frame=32   JointI=38   JointJ=24   IsCurved=No   GUID=2ea01fb3-e112-4cac-83d6-f181a5c3017a
   Frame=33   JointI=24   JointJ=34   IsCurved=No   GUID=2baf979d-9524-44ab-8eb0-9836462a3e07
   Frame=34   JointI=39   JointJ=28   IsCurved=No   GUID=2e540577-44b9-463b-9d94-db2a475fc2b1
   Frame=35   JointI=40   JointJ=24   IsCurved=No   GUID=f57b020c-09ea-430c-90d3-0c1a0c1efdae
   Frame=36   JointI=17   JointJ=41   IsCurved=No   GUID=54284031-b429-4015-8191-2ccd7e0f68b4
   Frame=37   JointI=41   JointJ=42   IsCurved=No   GUID=569be12a-4c17-4f2a-8aa2-42196bc4f689
   Frame=38   JointI=42   JointJ=18   IsCurved=No   GUID=ce8d8d37-f02c-4b20-8f54-10ab509b507f
   Frame=39   JointI=41   JointJ=31   IsCurved=No   GUID=69c538e7-76b0-4331-a8fe-578ce7732a43
   Frame=40   JointI=42   JointJ=19   IsCurved=No   GUID=a2351158-1cb2-4356-8228-4f5ba909adf4
   Frame=41   JointI=41   JointJ=27   IsCurved=No   GUID=c1552b16-ec6b-46c5-a7d6-57916a548937
   Frame=42   JointI=27   JointJ=43   IsCurved=No   GUID=8972cb6c-016e-4b56-b6d7-5af17fafc41b
   Frame=43   JointI=43   JointJ=23   IsCurved=No   GUID=080378fc-86f8-4999-ae7e-056cba97cb6e
   Frame=44   JointI=23   JointJ=42   IsCurved=No   GUID=4ee3d0d1-17e2-4840-8030-c2921cefae01
   Frame=45   JointI=44   JointJ=27   IsCurved=No   GUID=cff12ac3-acfb-42cd-af82-8a21e4c390d6
   Frame=46   JointI=45   JointJ=23   IsCurved=No   GUID=8d6faa61-ee17-41fd-9d43-9641c9ed2d98
   Frame=47   JointI=41   JointJ=33   IsCurved=No   GUID=e6676b95-a36c-4689-b95d-a6f4233edc2b
   Frame=48   JointI=42   JointJ=34   IsCurved=No   GUID=e27f0c93-68e4-4abe-8dcb-8a0833f56f75
   Frame=50   JointI=44   JointJ=39   IsCurved=No   GUID=04e68d02-5bbe-47c0-a72a-61f685eb1737
   Frame=51   JointI=45   JointJ=40   IsCurved=No   GUID=57261dce-ac7a-4669-854d-1d46c71db180
 
TABLE:  "COORDINATE SYSTEMS"
   Name=GLOBAL   Type=Cartesian   X=0   Y=0   Z=0   AboutZ=0   AboutY=0   AboutX=0
 
TABLE:  "DATABASE DOCUMENTATION"
 
TABLE:  "DATABASE FORMAT TYPES"
   UnitsCurr=Yes   OverrideE=No
 
TABLE:  "FRAME AUTO MESH ASSIGNMENTS"
   Frame=10   AutoMesh=Yes   AtJoints=Yes   AtFrames=No   NumSegments=0   MaxLength=0   MaxDegrees=0
   Frame=11   AutoMesh=Yes   AtJoints=Yes   AtFrames=No   NumSegments=0   MaxLength=0   MaxDegrees=0
   Frame=12   AutoMesh=Yes   AtJoints=Yes   AtFrames=No   NumSegments=0   MaxLength=0   MaxDegrees=0
   Frame=13   AutoMesh=Yes   AtJoints=Yes   AtFrames=No   NumSegments=0   MaxLength=0   MaxDegrees=0
   Frame=14   AutoMesh=Yes   AtJoints=Yes   AtFrames=No   NumSegments=0   MaxLength=0   MaxDegrees=0
   Frame=15   AutoMesh=Yes   AtJoints=Yes   AtFrames=No   NumSegments=0   MaxLength=0   MaxDegrees=0
   Frame=16   AutoMesh=Yes   AtJoints=Yes   AtFrames=No   NumSegments=0   MaxLength=0   MaxDegrees=0
   Frame=17   AutoMesh=Yes   AtJoints=Yes   AtFrames=No   NumSegments=0   MaxLength=0   MaxDegrees=0
   Frame=18   AutoMesh=Yes   AtJoints=Yes   AtFrames=No   NumSegments=0   MaxLength=0   MaxDegrees=0
   Frame=19   AutoMesh=Yes   AtJoints=Yes   AtFrames=No   NumSegments=0   MaxLength=0   MaxDegrees=0
   Frame=20   AutoMesh=Yes   AtJoints=Yes   AtFrames=No   NumSegments=0   MaxLength=0   MaxDegrees=0
   Frame=21   AutoMesh=Yes   AtJoints=Yes   AtFrames=No   NumSegments=0   MaxLength=0   MaxDegrees=0
   Frame=22   AutoMesh=Yes   AtJoints=Yes   AtFrames=No   NumSegments=0   MaxLength=0   MaxDegrees=0
   Frame=23   AutoMesh=Yes   AtJoints=Yes   AtFrames=No   NumSegments=0   MaxLength=0   MaxDegrees=0
   Frame=24   AutoMesh=Yes   AtJoints=Yes   AtFrames=No   NumSegments=0   MaxLength=0   MaxDegrees=0
   Frame=25   AutoMesh=Yes   AtJoints=Yes   AtFrames=No   NumSegments=0   MaxLength=0   MaxDegrees=0
   Frame=30   AutoMesh=Yes   AtJoints=Yes   AtFrames=No   NumSegments=0   MaxLength=0   MaxDegrees=0
   Frame=31   AutoMesh=Yes   AtJoints=Yes   AtFrames=No   NumSegments=0   MaxLength=0   MaxDegrees=0
   Frame=32   AutoMesh=Yes   AtJoints=Yes   AtFrames=No   NumSegments=0   MaxLength=0   MaxDegrees=0
   Frame=33   AutoMesh=Yes   AtJoints=Yes   AtFrames=No   NumSegments=0   MaxLength=0   MaxDegrees=0
# ... 17 like lines cut
 
TABLE:  "FRAME DESIGN PROCEDURES"
   Frame=10   DesignProc="From Material"
   Frame=11   DesignProc="From Material"
   Frame=12   DesignProc="From Material"
   Frame=13   DesignProc="From Material"
   Frame=14   DesignProc="From Material"
   Frame=15   DesignProc="From Material"
   Frame=16   DesignProc="From Material"
   Frame=17   DesignProc="From Material"
   Frame=18   DesignProc="From Material"
   Frame=19   DesignProc="From Material"
   Frame=20   DesignProc="From Material"
   Frame=21   DesignProc="From Material"
   Frame=22   DesignProc="From Material"
   Frame=23   DesignProc="From Material"
   Frame=24   DesignProc="From Material"
   Frame=25   DesignProc="From Material"
   Frame=30   DesignProc="From Material"
   Frame=31   DesignProc="From Material"
   Frame=32   DesignProc="From Material"
   Frame=33   DesignProc="From Material"
# ... 17 like lines cut
 
TABLE:  "FRAME LOADS - DISTRIBUTED"
   Frame=10   LoadPat=STRUCTURE   CoordSys=GLOBAL   Type=Force   Dir=Gravity   DistType=RelDist   RelDistA=0   RelDistB=1   AbsDistA=0   AbsDistB=30.48   FOverLA=1   FOverLB=1   GUID=0d1877af-b909-4a47-b73c-7548c708b909
   Frame=10   LoadPat=WIND   CoordSys=GLOBAL   Type=Force   Dir=Y   DistType=RelDist   RelDistA=0   RelDistB=1   AbsDistA=0   AbsDistB=30.48   FOverLA=0.5   FOverLB=0.5   GUID=3d8d8c26-b5fc-4962-a14a-b7c120038578
   Frame=11   LoadPat=STRUCTURE   CoordSys=GLOBAL   Type=Force   Dir=Gravity   DistType=RelDist   RelDistA=0   RelDistB=1   AbsDistA=0   AbsDistB=30.48   FOverLA=1   FOverLB=1   GUID=42955908-d2fa-4e55-82f1-c88cbabe1d4e
   Frame=11   LoadPat=WIND   CoordSys=GLOBAL   Type=Force   Dir=Y   DistType=RelDist   RelDistA=0   RelDistB=1   AbsDistA=0   AbsDistB=30.48   FOverLA=0.5   FOverLB=0.5   GUID=a227331a-7c93-4ddd-8c57-dcda9c1e5dfb
   Frame=12   LoadPat=STRUCTURE   CoordSys=GLOBAL   Type=Force   Dir=Gravity   DistType=RelDist   RelDistA=0   RelDistB=1   AbsDistA=0   AbsDistB=3.048   FOverLA=1   FOverLB=1   GUID=5db2520d-3426-4e59-840b-347752c936b7
   Frame=13   LoadPat=STRUCTURE   CoordSys=GLOBAL   Type=Force   Dir=Gravity   DistType=RelDist   RelDistA=0   RelDistB=1   AbsDistA=0   AbsDistB=3.048   FOverLA=1   FOverLB=1   GUID=d5788564-309e-4f5d-8d0c-9478c6df9843
   Frame=21   LoadPat=WIND   CoordSys=GLOBAL   Type=Force   Dir=Y   DistType=RelDist   RelDistA=0   RelDistB=1   AbsDistA=0   AbsDistB=4.87918066892383   FOverLA=0.5   FOverLB=0.5   GUID=3d9ec5e8-160e-462f-b0f6-ffd5bbb5027b
   Frame=22   LoadPat=WIND   CoordSys=GLOBAL   Type=Force   Dir=Y   DistType=RelDist   RelDistA=0   RelDistB=1   AbsDistA=0   AbsDistB=22.86   FOverLA=0.5   FOverLB=0.5   GUID=7bc49235-7cd6-4e49-85c5-dbc1c76621e4
   Frame=23   LoadPat=WIND   CoordSys=GLOBAL   Type=Force   Dir=Y   DistType=RelDist   RelDistA=0   RelDistB=1   AbsDistA=0   AbsDistB=4.87918066892383   FOverLA=0.5   FOverLB=0.5   GUID=8cd94d4f-0c8b-4834-9560-124ce1caa268
   Frame=24   LoadPat=WIND   CoordSys=GLOBAL   Type=Force   Dir=Y   DistType=RelDist   RelDistA=0   RelDistB=1   AbsDistA=0   AbsDistB=3.048   FOverLA=0.5   FOverLB=0.5   GUID=d3d037d5-3e61-49bf-9c84-12130cf75004
   Frame=25   LoadPat=WIND   CoordSys=GLOBAL   Type=Force   Dir=Y   DistType=RelDist   RelDistA=0   RelDistB=1   AbsDistA=0   AbsDistB=3.048   FOverLA=0.5   FOverLB=0.5   GUID=6d027d10-30fe-4871-8cb7-6d135bc9f415
   Frame=30   LoadPat=WIND   CoordSys=GLOBAL   Type=Force   Dir=Y   DistType=RelDist   RelDistA=0   RelDistB=1   AbsDistA=0   AbsDistB=8.20699116607298   FOverLA=0.5   FOverLB=0.5   GUID=f55ca750-58ea-455a-aa63-8b923b5edeef
   Frame=31   LoadPat=WIND   CoordSys=GLOBAL   Type=Force   Dir=Y   DistType=RelDist   RelDistA=0   RelDistB=1   AbsDistA=0   AbsDistB=4.87918066892383   FOverLA=0.5   FOverLB=0.5   GUID=59402905-028b-448a-9cc6-9b20b3f086cb
   Frame=32   LoadPat=WIND   CoordSys=GLOBAL   Type=Force   Dir=Y   DistType=RelDist   RelDistA=0   RelDistB=1   AbsDistA=0   AbsDistB=4.87918066892383   FOverLA=0.5   FOverLB=0.5   GUID=b0bbe34f-07f9-4901-8c5c-633161085da1
   Frame=33   LoadPat=WIND   CoordSys=GLOBAL   Type=Force   Dir=Y   DistType=RelDist   RelDistA=0   RelDistB=1   AbsDistA=0   AbsDistB=8.20699116607298   FOverLA=0.5   FOverLB=0.5   GUID=4795e5b7-2d99-4dd3-bb73-57b3c609557d
   Frame=34   LoadPat=WIND   CoordSys=GLOBAL   Type=Force   Dir=Y   DistType=RelDist   RelDistA=0   RelDistB=1   AbsDistA=0   AbsDistB=3.048   FOverLA=0.5   FOverLB=0.5   GUID=130a6f9d-b073-42f6-9d7e-09688cf46089
   Frame=35   LoadPat=WIND   CoordSys=GLOBAL   Type=Force   Dir=Y   DistType=RelDist   RelDistA=0   RelDistB=1   AbsDistA=0   AbsDistB=3.048   FOverLA=0.5   FOverLB=0.5   GUID=ba7419e2-5635-4f12-9da9-9cc8c64c5087
   Frame=36   LoadPat=WIND   CoordSys=GLOBAL   Type=Force   Dir=Y   DistType=RelDist   RelDistA=0   RelDistB=1   AbsDistA=0   AbsDistB=4.87918066892383   FOverLA=0.5   FOverLB=0.5   GUID=22aee188-ef5d-43c8-adad-780671027d4d
   Frame=37   LoadPat=WIND   CoordSys=GLOBAL   Type=Force   Dir=Y   DistType=RelDist   RelDistA=0   RelDistB=1   AbsDistA=0   AbsDistB=22.86   FOverLA=0.5   FOverLB=0.5   GUID=b342e866-7f8b-4fc1-a344-003d0947fe75
   Frame=38   LoadPat=WIND   CoordSys=GLOBAL   Type=Force   Dir=Y   DistType=RelDist   RelDistA=0   RelDistB=1   AbsDistA=0   AbsDistB=4.87918066892383   FOverLA=0.5   FOverLB=0.5   GUID=e988033d-c8b6-4535-bd3a-b930e63beedc
   Frame=39   LoadPat=WIND   CoordSys=GLOBAL   Type=Force   Dir=Y   DistType=RelDist   RelDistA=0   RelDistB=1   AbsDistA=0   AbsDistB=3.048   FOverLA=0.5   FOverLB=0.5   GUID=c6e28479-8c31-476b-9cd3-c47cd5e8a386
   Frame=40   LoadPat=WIND   CoordSys=GLOBAL   Type=Force   Dir=Y   DistType=RelDist   RelDistA=0   RelDistB=1   AbsDistA=0   AbsDistB=3.048   FOverLA=0.5   FOverLB=0.5   GUID=8b10c218-3496-47b4-bc74-7122d0c502a7
   Frame=41   LoadPat=WIND   CoordSys=GLOBAL   Type=Force   Dir=Y   DistType=RelDist   RelDistA=0   RelDistB=1   AbsDistA=0   AbsDistB=8.20699116607298   FOverLA=0.5   FOverLB=0.5   GUID=6ff2ebda-c171-45d2-a6d6-a0fb56bb1b8a
   Frame=42   LoadPat=WIND   CoordSys=GLOBAL   Type=Force   Dir=Y   DistType=RelDist   RelDistA=0   RelDistB=1   AbsDistA=0   AbsDistB=4.87918066892383   FOverLA=0.5   FOverLB=0.5   GUID=d5609715-c3bd-44ce-9f7a-2484cfa8b154
   Frame=43   LoadPat=WIND   CoordSys=GLOBAL   Type=Force   Dir=Y   DistType=RelDist   RelDistA=0   RelDistB=1   AbsDistA=0   AbsDistB=4.87918066892383   FOverLA=0.5   FOverLB=0.5   GUID=a05720ce-88f5-4aed-9003-64031274bf63
   Frame=44   LoadPat=WIND   CoordSys=GLOBAL   Type=Force   Dir=Y   DistType=RelDist   RelDistA=0   RelDistB=1   AbsDistA=0   AbsDistB=8.20699116607298   FOverLA=0.5   FOverLB=0.5   GUID=94767c46-a0c3-47cd-b7fa-0a290457a528
   Frame=45   LoadPat=WIND   CoordSys=GLOBAL   Type=Force   Dir=Y   DistType=RelDist   RelDistA=0   RelDistB=1   AbsDistA=0   AbsDistB=3.048   FOverLA=0.5   FOverLB=0.5   GUID=0c58740c-e6b0-471c-910a-c92786d0e11d
   Frame=46   LoadPat=WIND   CoordSys=GLOBAL   Type=Force   Dir=Y   DistType=RelDist   RelDistA=0   RelDistB=1   AbsDistA=0   AbsDistB=3.048   FOverLA=0.5   FOverLB=0.5   GUID=f0a856a7-562e-4f36-a1ed-a8420320d71e
 
TABLE:  "FRAME LOAD TRANSFER OPTIONS"
   Frame=10   Transfer=Yes
   Frame=11   Transfer=Yes
   Frame=12   Transfer=Yes
   Frame=13   Transfer=Yes
   Frame=14   Transfer=Yes
   Frame=15   Transfer=Yes
   Frame=16   Transfer=Yes
   Frame=17   Transfer=Yes
   Frame=18   Transfer=Yes
   Frame=19   Transfer=Yes
   Frame=20   Transfer=Yes
   Frame=21   Transfer=Yes
   Frame=22   Transfer=Yes
   Frame=23   Transfer=Yes
   Frame=24   Transfer=Yes
   Frame=25   Transfer=Yes
   Frame=30   Transfer=Yes
   Frame=31   Transfer=Yes
   Frame=32   Transfer=Yes
   Frame=33   Transfer=Yes
# ... 17 like lines cut
 
TABLE:  "FRAME OUTPUT STATION ASSIGNMENTS"
   Frame=10   StationType=MaxStaSpcg   MaxStaSpcg=0.5   AddAtElmInt=Yes   AddAtPtLoad=Yes
   Frame=11   StationType=MaxStaSpcg   MaxStaSpcg=0.5   AddAtElmInt=Yes   AddAtPtLoad=Yes
   Frame=12   StationType=MaxStaSpcg   MaxStaSpcg=0.5   AddAtElmInt=Yes   AddAtPtLoad=Yes
   Frame=13   StationType=MaxStaSpcg   MaxStaSpcg=0.5   AddAtElmInt=Yes   AddAtPtLoad=Yes
   Frame=14   StationType=MaxStaSpcg   MaxStaSpcg=0.5   AddAtElmInt=Yes   AddAtPtLoad=Yes
   Frame=15   StationType=MaxStaSpcg   MaxStaSpcg=0.5   AddAtElmInt=Yes   AddAtPtLoad=Yes
   Frame=16   StationType=MaxStaSpcg   MaxStaSpcg=0.5   AddAtElmInt=Yes   AddAtPtLoad=Yes
   Frame=17   StationType=MaxStaSpcg   MaxStaSpcg=0.5   AddAtElmInt=Yes   AddAtPtLoad=Yes
   Frame=18   StationType=MaxStaSpcg   MaxStaSpcg=0.5   AddAtElmInt=Yes   AddAtPtLoad=Yes
   Frame=19   StationType=MaxStaSpcg   MaxStaSpcg=0.5   AddAtElmInt=Yes   AddAtPtLoad=Yes
   Frame=20   StationType=MaxStaSpcg   MaxStaSpcg=0.5   AddAtElmInt=Yes   AddAtPtLoad=Yes
   Frame=21   StationType=MinNumSta   MinNumSta=3   AddAtElmInt=Yes   AddAtPtLoad=Yes
   Frame=22   StationType=MaxStaSpcg   MaxStaSpcg=0.5   AddAtElmInt=Yes   AddAtPtLoad=Yes
   Frame=23   StationType=MinNumSta   MinNumSta=3   AddAtElmInt=Yes   AddAtPtLoad=Yes
   Frame=24   StationType=MinNumSta   MinNumSta=3   AddAtElmInt=Yes   AddAtPtLoad=Yes
   Frame=25   StationType=MinNumSta   MinNumSta=3   AddAtElmInt=Yes   AddAtPtLoad=Yes
   Frame=30   StationType=MinNumSta   MinNumSta=3   AddAtElmInt=Yes   AddAtPtLoad=Yes
   Frame=31   StationType=MinNumSta   MinNumSta=3   AddAtElmInt=Yes   AddAtPtLoad=Yes
   Frame=32   StationType=MinNumSta   MinNumSta=3   AddAtElmInt=Yes   AddAtPtLoad=Yes
   Frame=33   StationType=MinNumSta   MinNumSta=3   AddAtElmInt=Yes   AddAtPtLoad=Yes
   Frame=34   StationType=MinNumSta   MinNumSta=3   AddAtElmInt=Yes   AddAtPtLoad=Yes
   Frame=35   StationType=MinNumSta   MinNumSta=3   AddAtElmInt=Yes   AddAtPtLoad=Yes
   Frame=36   StationType=MinNumSta   MinNumSta=3   AddAtElmInt=Yes   AddAtPtLoad=Yes
   Frame=37   StationType=MaxStaSpcg   MaxStaSpcg=0.5   AddAtElmInt=Yes   AddAtPtLoad=Yes
   Frame=38   StationType=MinNumSta   MinNumSta=3   AddAtElmInt=Yes   AddAtPtLoad=Yes
   Frame=39   StationType=MinNumSta   MinNumSta=3   AddAtElmInt=Yes   AddAtPtLoad=Yes
   Frame=40   StationType=MinNumSta   MinNumSta=3   AddAtElmInt=Yes   AddAtPtLoad=Yes
   Frame=41   StationType=MinNumSta   MinNumSta=3   AddAtElmInt=Yes   AddAtPtLoad=Yes
   Frame=42   StationType=MinNumSta   MinNumSta=3   AddAtElmInt=Yes   AddAtPtLoad=Yes
   Frame=43   StationType=MinNumSta   MinNumSta=3   AddAtElmInt=Yes   AddAtPtLoad=Yes
   Frame=44   StationType=MinNumSta   MinNumSta=3   AddAtElmInt=Yes   AddAtPtLoad=Yes
   Frame=45   StationType=MinNumSta   MinNumSta=3   AddAtElmInt=Yes   AddAtPtLoad=Yes
   Frame=46   StationType=MinNumSta   MinNumSta=3   AddAtElmInt=Yes   AddAtPtLoad=Yes
   Frame=47   StationType=MaxStaSpcg   MaxStaSpcg=0.5   AddAtElmInt=Yes   AddAtPtLoad=Yes
   Frame=48   StationType=MaxStaSpcg   MaxStaSpcg=0.5   AddAtElmInt=Yes   AddAtPtLoad=Yes
   Frame=50   StationType=MaxStaSpcg   MaxStaSpcg=0.5   AddAtElmInt=Yes   AddAtPtLoad=Yes
   Frame=51   StationType=MaxStaSpcg   MaxStaSpcg=0.5   AddAtElmInt=Yes   AddAtPtLoad=Yes
 
TABLE:  "FRAME SECTION ASSIGNMENTS"
   Frame=10   AutoSelect=N.A.   AnalSect=BEAM   MatProp=Default
   Frame=11   AutoSelect=N.A.   AnalSect=BEAM   MatProp=Default
   Frame=12   AutoSelect=N.A.   AnalSect=BEAM   MatProp=Default
   Frame=13   AutoSelect=N.A.   AnalSect=BEAM   MatProp=Default
   Frame=14   AutoSelect=N.A.   AnalSect=Pipes   MatProp=Default
   Frame=15   AutoSelect=N.A.   AnalSect=Pipes   MatProp=Default
   Frame=16   AutoSelect=N.A.   AnalSect=Pipes   MatProp=Default
   Frame=17   AutoSelect=N.A.   AnalSect=Pipes   MatProp=Default
   Frame=18   AutoSelect=N.A.   AnalSect=Pipes   MatProp=Default
   Frame=19   AutoSelect=N.A.   AnalSect=Pipes   MatProp=Default
   Frame=20   AutoSelect=N.A.   AnalSect=Pipes   MatProp=Default
   Frame=21   AutoSelect=N.A.   AnalSect=Pipes   MatProp=Default
   Frame=22   AutoSelect=N.A.   AnalSect=Pipes   MatProp=Default
   Frame=23   AutoSelect=N.A.   AnalSect=Pipes   MatProp=Default
   Frame=24   AutoSelect=N.A.   AnalSect=Pipes   MatProp=Default
   Frame=25   AutoSelect=N.A.   AnalSect=Pipes   MatProp=Default
   Frame=30   AutoSelect=N.A.   AnalSect=Pipes   MatProp=Default
   Frame=31   AutoSelect=N.A.   AnalSect=Pipes   MatProp=Default
   Frame=32   AutoSelect=N.A.   AnalSect=Pipes   MatProp=Default
   Frame=33   AutoSelect=N.A.   AnalSect=Pipes   MatProp=Default
   Frame=34   AutoSelect=N.A.   AnalSect=Pipes   MatProp=Default
   Frame=35   AutoSelect=N.A.   AnalSect=Pipes   MatProp=Default
   Frame=36   AutoSelect=N.A.   AnalSect=Pipes   MatProp=Default
   Frame=37   AutoSelect=N.A.   AnalSect=Pipes   MatProp=Default
# ... 13 like lines cut
 
TABLE:  "FRAME SECTION PROPERTIES 01 - GENERAL"
   SectionName=BEAM   Material=4000Psi   Shape=Rectangular   t3=0.4572   t2=0.25398984   Area=0.116124154848   TorsConst=0.00163007928690396   I33=0.00202280381302686   I22=0.000624272219740218   I23=0   AS2=0.09677012904 _
        AS3=0.09677012904   S33=0.0088486605994176   S22=0.00491572591832979   Z33=0.0132729908991264   Z22=0.00737358887749469   R33=0.131982271536748   R22=0.073320551247715   Color=Red   FromFile=No   AMod=1   A2Mod=1   A3Mod=1   JMod=1 _
        I2Mod=1   I3Mod=1   MMod=1   WMod=1   Notes="Added 01-01-2019 01:42:19"
   SectionName=Pipes   Material=A500GrB46   Shape=Box/Tube   t3=0.1524   t2=0.1524   tf=0.027432   tw=0.027432   Area=0.013712488704   TorsConst=5.35369875329891E-05   I33=3.74111330688585E-05   I22=3.74111330688585E-05   I23=0 _
        AS2=0.0083612736   AS3=0.0083612736   S33=0.000490959751559824   S22=0.000490959751559824   Z33=0.000652929848718336   Z22=0.000652929848718336   R33=0.0522326775878855   R22=0.0522326775878855   Color=Blue   FromFile=No   AMod=1 _
        A2Mod=1   A3Mod=1   JMod=1   I2Mod=1   I3Mod=1   MMod=1   WMod=1   Notes="Added 01-01-2019 01:39:53"
 
TABLE:  "FRAME SECTION PROPERTIES 03 - CONCRETE BEAM"
   SectionName=BEAM   RebarMatL=A615Gr60   RebarMatC=A615Gr60   TopCover=0.06   BotCover=0.06   TopLeftArea=0   TopRghtArea=0   BotLeftArea=0   BotRghtArea=0
 
TABLE:  "FRAME SECTION PROPERTIES 13 - TIME DEPENDENT"
   SectionName=BEAM   TypeSize=Auto   AutoSFSize=1
   SectionName=Pipes   TypeSize=Auto   AutoSFSize=1
 
TABLE:  "FUNCTION - PLOT FUNCTIONS"
   PlotFunc="Input Energy"   Type=Energy   Component=Input   Mode=All
 
TABLE:  "FUNCTION - POWER SPECTRAL DENSITY - USER"
   Name=UNIFPSD   Frequency=0   Value=1
   Name=UNIFPSD   Frequency=1   Value=1
 
TABLE:  "FUNCTION - RESPONSE SPECTRUM - USER"
   Name=UNIFRS   Period=0   Accel=1   FuncDamp=0.05
   Name=UNIFRS   Period=1   Accel=1
 
TABLE:  "FUNCTION - STEADY STATE - USER"
   Name=UNIFSS   Frequency=0   Value=1
   Name=UNIFSS   Frequency=1   Value=1
 
TABLE:  "FUNCTION - TIME HISTORY - USER"
   Name=RAMPTH   Time=0   Value=0
   Name=RAMPTH   Time=1   Value=1
   Name=RAMPTH   Time=4   Value=1
   Name=UNIFTH   Time=0   Value=1
   Name=UNIFTH   Time=1   Value=1
 
TABLE:  "GRID LINES"
   CoordSys=GLOBAL   AxisDir=X   GridID=A   XRYZCoord=0   LineType=Primary   LineColor=Gray8Dark   Visible=Yes   BubbleLoc=End   AllVisible=Yes   BubbleSize=1.2499848
   CoordSys=GLOBAL   AxisDir=X   GridID=B   XRYZCoord=3.81   LineType=Primary   LineColor=Gray8Dark   Visible=Yes   BubbleLoc=End
   CoordSys=GLOBAL   AxisDir=X   GridID=C   XRYZCoord=7.62   LineType=Primary   LineColor=Gray8Dark   Visible=Yes   BubbleLoc=End
   CoordSys=GLOBAL   AxisDir=X   GridID=D   XRYZCoord=11.43   LineType=Primary   LineColor=Gray8Dark   Visible=Yes   BubbleLoc=End
   CoordSys=GLOBAL   AxisDir=X   GridID=E   XRYZCoord=15.24   LineType=Primary   LineColor=Gray8Dark   Visible=Yes   BubbleLoc=End
   CoordSys=GLOBAL   AxisDir=X   GridID=F   XRYZCoord=19.05   LineType=Primary   LineColor=Gray8Dark   Visible=Yes   BubbleLoc=End
   CoordSys=GLOBAL   AxisDir=X   GridID=G   XRYZCoord=22.86   LineType=Primary   LineColor=Gray8Dark   Visible=Yes   BubbleLoc=End
   CoordSys=GLOBAL   AxisDir=X   GridID=H   XRYZCoord=26.67   LineType=Primary   LineColor=Gray8Dark   Visible=Yes   BubbleLoc=End
   CoordSys=GLOBAL   AxisDir=X   GridID=I   XRYZCoord=30.48   LineType=Primary   LineColor=Gray8Dark   Visible=Yes   BubbleLoc=End
   CoordSys=GLOBAL   AxisDir=Y   GridID=1   XRYZCoord=0   LineType=Primary   LineColor=Gray8Dark   Visible=Yes   BubbleLoc=Start
   CoordSys=GLOBAL   AxisDir=Y   GridID=2   XRYZCoord=3.048   LineType=Primary   LineColor=Gray8Dark   Visible=Yes   BubbleLoc=Start
   CoordSys=GLOBAL   AxisDir=Z   GridID=Z1   XRYZCoord=0   LineType=Primary   LineColor=Gray8Dark   Visible=Yes   BubbleLoc=End
   CoordSys=GLOBAL   AxisDir=Z   GridID=Z2   XRYZCoord=3.048   LineType=Primary   LineColor=Gray8Dark   Visible=Yes   BubbleLoc=End
 
TABLE:  "GROUPS 1 - DEFINITIONS"
   GroupName=ALL   Selection=Yes   SectionCut=Yes   Steel=Yes   Concrete=Yes   Aluminum=Yes   ColdFormed=Yes   Stage=Yes   Bridge=Yes   AutoSeismic=No   AutoWind=No   SelDesSteel=No   SelDesAlum=No   SelDesCold=No   MassWeight=Yes   Color=Red
 
TABLE:  "JOINT COORDINATES"
   Joint=15   CoordSys=GLOBAL   CoordType=Cartesian   XorR=0   Y=0   Z=0   SpecialJt=No   GUID=e2b4214c-1bc0-46b3-a3da-97eba6fc5b33
   Joint=16   CoordSys=GLOBAL   CoordType=Cartesian   XorR=30.48   Y=0   Z=0   SpecialJt=No   GUID=64017017-8891-4f42-abd4-fcdb23441ed7
   Joint=17   CoordSys=GLOBAL   CoordType=Cartesian   XorR=0   Y=3.048   Z=0   SpecialJt=No   GUID=bdb8be59-c5ec-4841-9c19-723dd531bbb1
   Joint=18   CoordSys=GLOBAL   CoordType=Cartesian   XorR=30.48   Y=3.048   Z=0   SpecialJt=No   GUID=e131b952-f2ef-41fd-8688-eb50638aa9e9
   Joint=19   CoordSys=GLOBAL   CoordType=Cartesian   XorR=26.67   Y=3.048   Z=0   SpecialJt=No   GUID=be0f5c0f-c7ca-4de6-893a-86d4ca28a96c
   Joint=20   CoordSys=GLOBAL   CoordType=Cartesian   XorR=26.67   Y=0   Z=0   SpecialJt=No   GUID=d1eb9265-4aed-483b-90c9-c86942b3855b
   Joint=21   CoordSys=GLOBAL   CoordType=Cartesian   XorR=22.86   Y=3.048   Z=0   SpecialJt=No   GUID=49e8dc00-278e-4133-a2cb-9bd418a6b73e
   Joint=22   CoordSys=GLOBAL   CoordType=Cartesian   XorR=22.86   Y=0   Z=0   SpecialJt=No   GUID=60b80508-be54-4978-8846-e57cf56ec270
   Joint=23   CoordSys=GLOBAL   CoordType=Cartesian   XorR=19.05   Y=3.048   Z=0   SpecialJt=No   GUID=18dd54d9-e177-41d5-835e-dec0615033f6
   Joint=24   CoordSys=GLOBAL   CoordType=Cartesian   XorR=19.05   Y=0   Z=0   SpecialJt=No   GUID=b119bcf3-b991-4a58-914a-7bce4808117e
   Joint=25   CoordSys=GLOBAL   CoordType=Cartesian   XorR=15.24   Y=3.048   Z=0   SpecialJt=No   GUID=24e0f23c-e8a0-49e2-9077-cf4153f19d48
   Joint=26   CoordSys=GLOBAL   CoordType=Cartesian   XorR=15.24   Y=0   Z=0   SpecialJt=No   GUID=e2349134-9f92-41e7-82ab-4b4b52ffc413
   Joint=27   CoordSys=GLOBAL   CoordType=Cartesian   XorR=11.43   Y=3.048   Z=0   SpecialJt=No   GUID=4b8e3e9e-bce3-4730-8c07-8637257886f3
   Joint=28   CoordSys=GLOBAL   CoordType=Cartesian   XorR=11.43   Y=0   Z=0   SpecialJt=No   GUID=87bb5193-0808-43e5-b333-3dcb016961b0
   Joint=29   CoordSys=GLOBAL   CoordType=Cartesian   XorR=7.62   Y=3.048   Z=0   SpecialJt=No   GUID=8270396f-e31d-4b39-8f22-1aee11b14fcb
   Joint=30   CoordSys=GLOBAL   CoordType=Cartesian   XorR=7.62   Y=0   Z=0   SpecialJt=No   GUID=7b473d20-cc6a-4f65-b2ec-7a7999edb6fd
   Joint=31   CoordSys=GLOBAL   CoordType=Cartesian   XorR=3.81   Y=3.048   Z=0   SpecialJt=No   GUID=52256203-67e8-450b-8dfe-51f910916c87
   Joint=32   CoordSys=GLOBAL   CoordType=Cartesian   XorR=3.81   Y=0   Z=0   SpecialJt=No   GUID=6e3076da-e45f-4c76-8efd-f1dd918c38ba
   Joint=33   CoordSys=GLOBAL   CoordType=Cartesian   XorR=3.81   Y=0   Z=3.048   SpecialJt=No   GUID=4e9d2b4e-135e-4947-ada0-fa08f3028f3f
   Joint=34   CoordSys=GLOBAL   CoordType=Cartesian   XorR=26.67   Y=0   Z=3.048   SpecialJt=No   GUID=d3d439c6-9a09-497d-89cb-86de1ac72f57
   Joint=38   CoordSys=GLOBAL   CoordType=Cartesian   XorR=15.24   Y=0   Z=3.048   SpecialJt=No   GUID=5dc3bfe0-2dd5-40de-b1df-cc331fbc5ce8
   Joint=39   CoordSys=GLOBAL   CoordType=Cartesian   XorR=11.43   Y=0   Z=3.048   SpecialJt=No   GUID=16773403-1835-4fa5-8688-b00ccafb47e1
   Joint=40   CoordSys=GLOBAL   CoordType=Cartesian   XorR=19.05   Y=0   Z=3.048   SpecialJt=No   GUID=21475c4a-3e97-48a1-832b-489de05aa360
   Joint=41   CoordSys=GLOBAL   CoordType=Cartesian   XorR=3.81   Y=3.048   Z=3.048   SpecialJt=No   GUID=a92f921a-1ec0-4035-a875-1b821de55623
   Joint=42   CoordSys=GLOBAL   CoordType=Cartesian   XorR=26.67   Y=3.048   Z=3.048   SpecialJt=No   GUID=09d972a2-3535-4fee-a284-15df10c7f28e
   Joint=43   CoordSys=GLOBAL   CoordType=Cartesian   XorR=15.24   Y=3.048   Z=3.048   SpecialJt=No   GUID=2e26de47-e899-481d-ad19-9e05b5324294
   Joint=44   CoordSys=GLOBAL   CoordType=Cartesian   XorR=11.43   Y=3.048   Z=3.048   SpecialJt=No   GUID=36d9d8a9-1cee-4f6c-8c73-30a57dab7f39
   Joint=45   CoordSys=GLOBAL   CoordType=Cartesian   XorR=19.05   Y=3.048   Z=3.048   SpecialJt=No   GUID=29bd9f78-2031-4435-8cc8-465c1f74a6e9
 
TABLE:  "JOINT PATTERN DEFINITIONS"
   Pattern=Default
 
TABLE:  "JOINT RESTRAINT ASSIGNMENTS"
   Joint=15   U1=Yes   U2=Yes   U3=Yes   R1=Yes   R2=Yes   R3=Yes
   Joint=16   U1=Yes   U2=Yes   U3=Yes   R1=Yes   R2=Yes   R3=Yes
   Joint=17   U1=Yes   U2=Yes   U3=Yes   R1=Yes   R2=Yes   R3=Yes
   Joint=18   U1=Yes   U2=Yes   U3=Yes   R1=Yes   R2=Yes   R3=Yes
 
TABLE:  "LOAD CASE DEFINITIONS"
   Case=DEAD   Type=LinStatic   InitialCond=Zero   DesTypeOpt="Prog Det"   DesignType=Dead   DesActOpt="Prog Det"   DesignAct=Non-Composite   AutoType=None   RunCase=Yes   GUID=f5f23e23-1c07-4c72-8103-8cd3839c6bed
   Case=MODAL   Type=LinModal   InitialCond=Zero   DesTypeOpt="Prog Det"   DesignType=Other   DesActOpt="Prog Det"   DesignAct=Other   AutoType=None   RunCase=Yes   GUID=b9fa385a-a4c0-4769-9769-2020f308d833
   Case=WIND   Type=LinStatic   InitialCond=Zero   DesTypeOpt="Prog Det"   DesignType=Wind   DesActOpt="Prog Det"   DesignAct="Short-Term Composite"   AutoType=None   RunCase=Yes   GUID=c98148c0-e535-40a3-ae05-d449b7798ba5
   Case=STRUCTURE   Type=LinStatic   InitialCond=Zero   DesTypeOpt="Prog Det"   DesignType=Wind   DesActOpt="Prog Det"   DesignAct="Short-Term Composite"   AutoType=None   RunCase=Yes   GUID=511d5a87-a32f-4f14-8a2d-b90bdd5d09aa
 
TABLE:  "LOAD PATTERN DEFINITIONS"
   LoadPat=DEAD   DesignType=Dead   SelfWtMult=1   GUID=747e2752-3c62-4c45-b4e7-84b369f24a1a
   LoadPat=WIND   DesignType=Wind   SelfWtMult=0   AutoLoad=None   GUID=82fc4978-8247-4488-b2bc-00d2f23268fc
   LoadPat=STRUCTURE   DesignType=Wind   SelfWtMult=0   AutoLoad=None   GUID=d7e8bfa0-c354-486c-aa48-fe3bf2071a0f
 
TABLE:  "MASS SOURCE"
   MassSource=MSSSRC1   Elements=Yes   Masses=Yes   Loads=No   IsDefault=Yes
 
TABLE:  "MATERIAL PROPERTIES 01 - GENERAL"
   Material=4000Psi   Type=Concrete   Grade="f'c 4000 psi"   SymType=Isotropic   TempDepend=No   Color=Yellow   Notes="Customary f'c 4000 psi 01-01-2019 01:04:18"
   Material=A416Gr270   Type=Tendon   Grade="Grade 270"   SymType=Uniaxial   TempDepend=No   Color=Blue   Notes="ASTM A416 Grade 270 01-01-2019 01:56:44"
   Material=A500GrB46   Type=Steel   Grade="Grade B, Fy 46 (HSS Rect.)"   SymType=Isotropic   TempDepend=No   Color=Magenta   Notes="United States ASTM A500 Grade B, Fy 46 (HSS Rect.) added 01-01-2019 01:39:12"
   Material=A615Gr60   Type=Rebar   Grade="Grade 60"   SymType=Uniaxial   TempDepend=No   Color=Cyan   Notes="ASTM A615 Grade 60 01-01-2019 01:42:19"
   Material=A992Fy50   Type=Steel   Grade="Grade 50"   SymType=Isotropic   TempDepend=No   Color=Magenta   Notes="ASTM A992 Grade 50 01-01-2019 01:04:18"
 
TABLE:  "MATERIAL PROPERTIES 02 - BASIC MECHANICAL PROPERTIES"
   Material=4000Psi   UnitWeight=23563.1216161854   UnitMass=2402.76960558926   E1=24855578060.0518   G12=10356490858.3549   U12=0.2   A1=9.89999952793124E-06
   Material=A416Gr270   UnitWeight=76972.8639422648   UnitMass=7849.04737995992   E1=196500599851.2   A1=1.16999994421006E-05
   Material=A500GrB46   UnitWeight=76972.8639422648   UnitMass=7849.04737995992   E1=199947978795.958   G12=76903068767.676   U12=0.3   A1=1.16999994421006E-05
   Material=A615Gr60   UnitWeight=76972.8639422648   UnitMass=7849.04737995992   E1=199947978795.958   A1=1.16999994421006E-05
   Material=A992Fy50   UnitWeight=76972.8639422648   UnitMass=7849.04737995992   E1=199947978795.958   G12=76903068767.676   U12=0.3   A1=1.16999994421006E-05
 
TABLE:  "MATERIAL PROPERTIES 03A - STEEL DATA"
   Material=A500GrB46   Fy=317158862.917726   Fu=399895957.591915   EffFy=348874749.209498   EffFu=439885553.351107   SSCurveOpt=Simple   SSHysType=Kinematic   SHard=0.018   SMax=0.12   SRup=0.18   FinalSlope=-0.1
   Material=A992Fy50   Fy=344737894.475789   Fu=448159262.818526   EffFy=379211683.923368   EffFu=492975189.100378   SSCurveOpt=Simple   SSHysType=Kinematic   SHard=0.015   SMax=0.11   SRup=0.17   FinalSlope=-0.1
 
TABLE:  "MATERIAL PROPERTIES 03B - CONCRETE DATA"
   Material=4000Psi   Fc=27579031.5580631   eFc=27579031.5580631   LtWtConc=No   SSCurveOpt=Mander   SSHysType=Takeda   SFc=0.00221914   SCap=0.005   FinalSlope=-0.1   FAngle=0   DAngle=0
 
TABLE:  "MATERIAL PROPERTIES 03E - REBAR DATA"
   Material=A615Gr60   Fy=413685473.370947   Fu=620528210.05642   EffFy=455054020.708041   EffFu=682581031.062062   SSCurveOpt=Simple   SSHysType=Kinematic   SHard=0.01   SCap=0.09   FinalSlope=-0.1   UseCTDef=No
 
TABLE:  "MATERIAL PROPERTIES 03F - TENDON DATA"
   Material=A416Gr270   Fy=1689905158.72032   Fu=1861584630.16926   SSCurveOpt="270 ksi"   SSHysType=Kinematic   FinalSlope=-0.1
 
TABLE:  "MATERIAL PROPERTIES 06 - DAMPING PARAMETERS"
   Material=4000Psi   ModalRatio=0   VisMass=0   VisStiff=0   HysMass=0   HysStiff=0
   Material=A416Gr270   ModalRatio=0   VisMass=0   VisStiff=0   HysMass=0   HysStiff=0
   Material=A500GrB46   ModalRatio=0   VisMass=0   VisStiff=0   HysMass=0   HysStiff=0
   Material=A615Gr60   ModalRatio=0   VisMass=0   VisStiff=0   HysMass=0   HysStiff=0
   Material=A992Fy50   ModalRatio=0   VisMass=0   VisStiff=0   HysMass=0   HysStiff=0
 
TABLE:  "OPTIONS - COLORS - DISPLAY"
   DeviceType=Screen   Points=Blue   LinesFrame=Blue   LinesFrmDL=Blue   LinesCable=Green   LinesTendon=Green   SpringLinks=Green   Restraints=Green   Releases=Green   Axes=Cyan   Text=Black   ShadowLines=Gray8Dark   GuideLines=Gray8Dark _
        Highlight=Red   Selection=10504778   AreaFillBot=Red   AreaFillTop=16744703   AreaFillSd=Red   AreaEdge=DarkRed   SolidF1=Red   SolidF2=Blue   SolidF3=Green   SolidF4=Yellow   SolidF5=White   SolidF6=Cyan   SolidEdge=DarkRed _
        Floor=Gray4   Background=White   BGLowLeft=White   BGLowRight=White   BGUpRight=White   Darkness=0.5
   DeviceType=Printer   Points=Gray8Dark   LinesFrame=Black   LinesFrmDL=Gray4   LinesCable=Black   LinesTendon=Black   SpringLinks=Gray8Dark   Restraints=Gray8Dark   Releases=Gray4   Axes=Black   Text=Black   ShadowLines=Gray4 _
        GuideLines=Gray4   Highlight=Black   Selection=Black   AreaFillBot=Gray4   AreaFillTop=Gray8Dark   AreaFillSd=Gray4   AreaEdge=Black   SolidF1=Gray1Light   SolidF2=Gray2   SolidF3=Gray3   SolidF4=Gray4   SolidF5=Gray5 _
        SolidF6=Gray6   SolidEdge=Black   Floor=Gray4   Background=White   BGLowLeft=White   BGLowRight=White   BGUpRight=White   Darkness=0.5
   DeviceType="Color Printer"   Points=Blue   LinesFrame=Blue   LinesFrmDL=Blue   LinesCable=Green   LinesTendon=Green   SpringLinks=Green   Restraints=Green   Releases=Green   Axes=Cyan   Text=Black   ShadowLines=Gray8Dark _
        GuideLines=Gray8Dark   Highlight=Red   Selection=10504778   AreaFillBot=Red   AreaFillTop=16744703   AreaFillSd=Red   AreaEdge=DarkRed   SolidF1=Red   SolidF2=Blue   SolidF3=Green   SolidF4=Yellow   SolidF5=White   SolidF6=Cyan _
        SolidEdge=DarkRed   Floor=Gray4   Background=White   BGLowLeft=White   BGLowRight=White   BGUpRight=White   Darkness=0.5
 
TABLE:  "OPTIONS - COLORS - OUTPUT"
   DeviceType=Screen   Contour1=13107400   Contour2=6553828   Contour3=Red   Contour4=16639   Contour5=Orange   Contour6=43775   Contour7=54527   Contour8=Yellow   Contour9=65408   Contour10=Green   Contour11=8453888   Contour12=Cyan _
        Contour13=16755200   Contour14=16733440   Contour15=Blue   Transpare=0.5   Ratio1=Cyan   Ratio2=Green   Ratio3=Yellow   Ratio4=Orange   Ratio5=Red   RatioNotD=Gray4   RatioNotC=Red   RatioVal1=0.5   RatioVal2=0.7   RatioVal3=0.9 _
        RatioVal4=1   DFillPos=Blue   DFillNeg=Red   DFillRPos=Green   DFillRNeg=Green
   DeviceType=Printer   Contour1=Black   Contour2=3158064   Contour3=4210752   Contour4=5263440   Contour5=6316128   Contour6=7368816   Contour7=Gray8Dark   Contour8=Gray7   Contour9=Gray6   Contour10=Gray5   Contour11=Gray4 _
        Contour12=Gray3   Contour13=Gray2   Contour14=Gray1Light   Contour15=White   Transpare=0   Ratio1=Gray2   Ratio2=Gray4   Ratio3=Gray8Dark   Ratio4=4210752   Ratio5=Black   RatioNotD=Gray4   RatioNotC=Black   RatioVal1=0.5 _
        RatioVal2=0.7   RatioVal3=0.9   RatioVal4=1   DFillPos=Gray8Dark   DFillNeg=Gray8Dark   DFillRPos=4210752   DFillRNeg=4210752
   DeviceType="Color Printer"   Contour1=13107400   Contour2=6553828   Contour3=Red   Contour4=16639   Contour5=Orange   Contour6=43775   Contour7=54527   Contour8=Yellow   Contour9=65408   Contour10=Green   Contour11=8453888 _
        Contour12=Cyan   Contour13=16755200   Contour14=16733440   Contour15=Blue   Transpare=0   Ratio1=Cyan   Ratio2=Green   Ratio3=Yellow   Ratio4=Orange   Ratio5=Red   RatioNotD=Gray4   RatioNotC=Red   RatioVal1=0.5   RatioVal2=0.7 _
        RatioVal3=0.9   RatioVal4=1   DFillPos=Blue   DFillNeg=Red   DFillRPos=Green   DFillRNeg=Green
 
TABLE:  "OVERWRITES - CONCRETE DESIGN - ACI 318-14"
   Frame=10   DesignSect="Program Determined"   FrameType="Program Determined"   RLLF=0   XLMajor=0   XLMinor=0
   Frame=11   DesignSect="Program Determined"   FrameType="Program Determined"   RLLF=0   XLMajor=0   XLMinor=0
   Frame=12   DesignSect="Program Determined"   FrameType="Program Determined"   RLLF=0   XLMajor=0   XLMinor=0
   Frame=13   DesignSect="Program Determined"   FrameType="Program Determined"   RLLF=0   XLMajor=0   XLMinor=0
 
TABLE:  "PREFERENCES - ALUMINUM DESIGN - AA-ASD 2000"
   THDesign=Envelopes   FrameType="Moment Frame"   SRatioLimit=1   MaxIter=1   LatFact=1.33333333333333   UseLatFact=No   Bridge=No
 
TABLE:  "PREFERENCES - COLD FORMED DESIGN - AISI-ASD96"
   THDesign=Envelopes   FrameType="Braced Frame"   SRatioLimit=1   MaxIter=1   OmegaBS=1.67   OmegaBUS=1.67   OmegaBLTB=1.67   OmegaVS=1.67   OmegaVNS=1.5   OmegaT=1.67   OmegaC=1.8
 
TABLE:  "PREFERENCES - CONCRETE DESIGN - ACI 318-14"
   THDesign=Envelopes   NumCurves=24   NumPoints=11   MinEccen=Yes   PatLLF=0.75   UFLimit=0.95   SeisCat=D   Rho=1   Sds=0.5   PhiT=0.9   PhiCTied=0.65   PhiCSpiral=0.75   PhiV=0.75   PhiVSeismic=0.6   PhiVJoint=0.85
 
TABLE:  "PREFERENCES - DIMENSIONAL"
   MergeTol=0.001   FineGrid=0.25   Nudge=0.25   SelectTol=3   SnapTol=12   SLineThick=2   PLineThick=4   MaxFont=8   MinFont=3   AutoZoom=10   ShrinkFact=70   TextFileLen=240
 
TABLE:  "PREFERENCES - STEEL DESIGN - AISC 360-10"
   THDesign=Envelopes   FrameType=SMF   PatLLF=0.75   SRatioLimit=0.95   MaxIter=1   SDC=D   SeisCode=Yes   SeisLoad=Yes   ImpFactor=1   SystemRho=1   SystemSds=0.5   SystemR=8   SystemCd=5.5   Omega0=3   Provision=LRFD _
        AMethod="Direct Analysis"   SOMethod="General 2nd Order"   SRMethod="Tau-b Fixed"   NLCoeff=0.002   PhiB=0.9   PhiC=0.9   PhiTY=0.9   PhiTF=0.75   PhiV=0.9   PhiVRolledI=1   PhiVT=0.9   PlugWeld=Yes   HSSWelding=ERW   HSSReduceT=No _
        CheckDefl=No   DLRat=120   SDLAndLLRat=120   LLRat=360   TotalRat=240   NetRat=240
 
TABLE:  "PROGRAM CONTROL"
   ProgramName=SAP2000   Version=20.2.0   CurrUnits="N, m, C"   SteelCode="AISC 360-10"   ConcCode="ACI 318-14"   AlumCode="AA-ASD 2000"   ColdCode=AISI-ASD96   RegenHinge=Yes
 
TABLE:  "PROJECT INFORMATION"
   Item="Company Name"
   Item="Client Name"
   Item="Project Name"
   Item="Project Number"
   Item="Model Name"
   Item="Model Description"
   Item="Revision Number"
   Item="Frame Type"
   Item=Engineer
   Item=Checker
   Item=Supervisor
   Item="Issue Code"
   Item="Design Code"
 
TABLE:  "REBAR SIZES"
   RebarID=#2   Area=3.2258E-05   Diameter=0.00635
   RebarID=#3   Area=7.09675996154547E-05   Diameter=0.009525
   RebarID=#4   Area=0.000129032001922727   Diameter=0.0127
   RebarID=#5   Area=0.000199999601538181   Diameter=0.015875
   RebarID=#6   Area=0.000283870398461819   Diameter=0.01905
   RebarID=#7   Area=0.000387096015381813   Diameter=0.022225
   RebarID=#8   Area=0.000509676413843632   Diameter=0.0254
   RebarID=#9   Area=0.00064516   Diameter=0.0286512005329132
   RebarID=#10   Area=0.00081935318769455   Diameter=0.0322579995155334
   RebarID=#11   Area=0.00100644956308365   Diameter=0.0358139991521835
   RebarID=#14   Area=0.00145161   Diameter=0.0430021989583969
   RebarID=#18   Area=0.00258064   Diameter=0.0573277992248535
   RebarID=10M   Area=0.000100000002655387   Diameter=0.011300000667572
   RebarID=15M   Area=0.000200000005310774   Diameter=0.0159999999403954
   RebarID=20M   Area=0.000300000017579794   Diameter=0.0194999997854233
   RebarID=25M   Area=0.000500000022890568   Diameter=0.0252000016093254
   RebarID=30M   Area=0.000700000008974075   Diameter=0.0299000008821487
   RebarID=35M   Area=0.00100000004578114   Diameter=0.0357000011444092
   RebarID=45M   Area=0.00150000010712624   Diameter=0.0437000003576279
   RebarID=55M   Area=0.00250000007599831   Diameter=0.0564000033855438
   RebarID=6d   Area=2.83000004149973E-05   Diameter=0.006000000166893
   RebarID=8d   Area=5.02999995571375E-05   Diameter=0.00799999997019768
   RebarID=10d   Area=7.85000013634562E-05   Diameter=0.00999999977350235
   RebarID=12d   Area=0.000113000009249449   Diameter=0.012000000333786
   RebarID=14d   Area=0.000154000010818839   Diameter=0.0140000008940697
   RebarID=16d   Area=0.000201000015431643   Diameter=0.0159999999403954
   RebarID=20d   Area=0.000314000005453825   Diameter=0.0199999995470047
   RebarID=25d   Area=0.000491000008711815   Diameter=0.0250000001907349
   RebarID=26d   Area=0.000531000029001236   Diameter=0.0259999997138977
   RebarID=28d   Area=0.000616000043275356   Diameter=0.0280000017881393
   RebarID=N12   Area=0.000113000009249449   Diameter=0.012000000333786
   RebarID=N16   Area=0.000201000015431643   Diameter=0.0159999999403954
   RebarID=N20   Area=0.000314000005453825   Diameter=0.0199999995470047
   RebarID=N24   Area=0.000452000036997795   Diameter=0.024000000667572
   RebarID=N28   Area=0.000616000043275356   Diameter=0.0280000017881393
   RebarID=N32   Area=0.00080400006172657   Diameter=0.0319999998807907
   RebarID=N36   Area=0.00102000001747131   Diameter=0.036000001001358
 
TABLE:  "SOLID PROPERTY DEFINITIONS"
   SolidProp=Solid1   Material=4000Psi   MatAngleA=0   MatAngleB=0   MatAngleC=0   InComp=Yes   Color=Green
 
END TABLE DATA
